*----------------------------------------------------------------------
* SPICE Model generated by Murata Manufacturing Co., Ltd.
* Copyright(C) Murata Manufacturing Co., Ltd.
* MURATA P/N : BLM15BX750SZ1
* Property : Z@100MHz = 75[ohm]
*----------------------------------------------------------------------
* Applicable Conditions:
*   Frequency Range = 1MHz - 3GHz
*   Temperature = 25 degC
*   DC Bias Current = 0 A
*   Small Signal Operation
*----------------------------------------------------------------------
.SUBCKT BLM15BX750SZ1 port1 port2
R1 port1 1 60.25
C2 1 2 1.143e-10
L1 port1 2 1.105e-7
R2 2 3 62.54
L2 2 3 2.180e-8
C1 port1 3 5.180e-13
R3 3 4 34.16
L3 3 4 1.876e-8
R4 4 port2 1.100e-1
.ENDS BLM15BX750SZ1
*----------------------------------------------------------------------
